  22
        -36.56908760
 O         -0.7720548546       -2.2642714550        0.6176717091
 O         -1.8579195329        1.0983622780        0.2972643304
 O         -2.2631929525       -0.7159312002       -0.9648271546
 C         -0.6513249793       -0.8800684429        0.7971054075
 C          0.7032556004       -0.3261769418        0.3767893123
 C          1.1062750310        0.9227556799        0.8328950828
 C          1.5272089805       -1.0451572792       -0.4755016616
 C         -1.6891131014       -0.1559588314       -0.0523232171
 C          2.3233640580        1.4456592275        0.4350837782
 C          2.7478024166       -0.5209007504       -0.8668870543
 C          3.1461279185        0.7255261073       -0.4163781330
 C         -2.7583726772        1.9067094096       -0.4746519504
 H         -0.8264015951       -0.6496258102        1.8546835366
 H          0.4623847857        1.4823413309        1.4942847801
 H          1.2175371307       -2.0215354941       -0.8143345923
 H          2.6315350239        2.4160586093        0.7927185178
 H          3.3848217922       -1.0892257129       -1.5272246500
 H          4.0956381366        1.1347088539       -0.7253585135
 H         -1.3056855970       -2.4183523813       -0.1818110078
 H         -3.5437136683        1.2845526683       -0.9040711949
 H         -3.1683985587        2.6399781904        0.2135916773
 H         -2.1995726722        2.3970720830       -1.2711047209
  22
        -36.56718536
 O         -0.9414369504       -2.1585788662        0.0216276550
 O         -2.1249664872        0.0439433979       -0.8209584056
 O         -1.8758214782        1.0531421383        1.1691904677
 C         -0.6288413190       -0.9661834832        0.6839703127
 C          0.7363781768       -0.3867254115        0.3273998913
 C          1.2063629959        0.7253085029        1.0160843783
 C          1.5090422011       -0.9475650291       -0.6780923096
 C         -1.6261341106        0.1531171209        0.3972360798
 C          2.4349586560        1.2727773955        0.6941522390
 C          2.7415088850       -0.4000520648       -0.9936969636
 C          3.2043832631        0.7121839195       -0.3131572469
 C         -3.0322275979        1.0446363538       -1.2991993997
 H         -0.6571610424       -1.1845033918        1.7571483639
 H          0.5996757836        1.1625653152        1.7956399026
 H          1.1586340344       -1.8271201988       -1.1950282471
 H          2.7921579016        2.1373099134        1.2323957154
 H          3.3388012305       -0.8462571748       -1.7738154919
 H          4.1630353839        1.1403734107       -0.5621116647
 H         -1.1970452431       -1.9585952305       -0.8919447120
 H         -3.9828636242        0.5573513206       -1.5068444306
 H         -3.1562510741        1.8218356270       -0.5451560930
 H         -2.6070935082        1.4576081884       -2.2115423940
  22
        -36.56708899
 O         -0.8859435743       -2.0928511689        0.6313109093
 O         -2.0777997893       -0.2507746639       -0.8911185085
 O         -1.9665661995        1.2751199346        0.7439064210
 C         -0.6396743903       -0.7424212060        0.9181462833
 C          0.7217283916       -0.2475111887        0.4567442480
 C          1.6033321144        0.3312036174        1.3590593961
 C          1.0860019139       -0.3561516712       -0.8801449575
 C         -1.6476756102        0.2045638982        0.2731320154
 C          2.8387959198        0.7861090308        0.9309558206
 C          2.3230962282        0.0956578946       -1.3048536310
 C          3.2017553410        0.6673483502       -0.4001240261
 C         -2.9866712270        0.5733715088       -1.6293120618
 H         -0.7228729466       -0.6400147296        2.0039873510
 H          1.3208012200        0.4244936336        2.3966476072
 H          0.3994843853       -0.7862635629       -1.5946930673
 H          3.5183313426        1.2330553262        1.6400406309
 H          2.5977369394        0.0053058541       -2.3444438030
 H          4.1652055952        1.0220563534       -0.7319406186
 H         -0.8663917734       -2.2340326176       -0.3266888499
 H         -3.1865873756        0.0345034183       -2.5499444240
 H         -3.9012091367        0.7228833004       -1.0554344250
 H         -2.5285630669        1.5425259588       -1.8283304442
  22
        -36.56690207
 O         -0.9334695406       -2.1660109355        0.3619660660
 O         -2.0826615207       -0.1109926270       -0.8555593846
 O         -1.8653173573        1.2005646729        0.9554959181
 C         -0.6368003407       -0.8811487627        0.8302656942
 C          0.7218708948       -0.3418020394        0.4033446733
 C          1.3938178728        0.5465708379        1.2334063983
 C          1.2753608813       -0.6855858282       -0.8220325007
 C         -1.6138358482        0.1853329764        0.3436722536
 C          2.6122440283        1.0749652102        0.8460115613
 C          2.4984414280       -0.1605767454       -1.2037236846
 C          3.1681983027        0.7204407517       -0.3725431688
 C         -2.9598474551        0.8123496285       -1.5124207526
 H         -0.6854166978       -0.9240115385        1.9225548820
 H          0.9539892026        0.8261768449        2.1790797949
 H          0.7607365203       -1.3722074213       -1.4758378259
 H          3.1283394467        1.7627499844        1.4979815286
 H          2.9249507707       -0.4386804369       -2.1551277218
 H          4.1197569392        1.1312446897       -0.6725426978
 H         -1.1834083436       -2.1210163834       -0.5728554008
 H         -3.8574622276        0.2637472619       -1.7890575558
 H         -3.2004315433        1.6356371847       -0.8398990214
 H         -2.4493021930        1.1828307092       -2.3994214145
  22
        -36.56689327
 O         -0.9277852372       -2.1555135339        0.4253268303
 O         -2.0809316126       -0.1406470858       -0.8628437440
 O         -1.8763785932        1.2238169010        0.9097137870
 C         -0.6373548419       -0.8544090156        0.8517872066
 C          0.7213346211       -0.3249020406        0.4148262513
 C          1.4391410760        0.5051487025        1.2661960743
 C          1.2316213827       -0.6207078770       -0.8419659604
 C         -1.6191100105        0.1912146298        0.3296464955
 C          2.6602356108        1.0211138047        0.8697891709
 C          2.4575957703       -0.1096995693       -1.2326589240
 C          3.1736644500        0.7116845377       -0.3790955510
 C         -2.9663336527        0.7578332398       -1.5425459661
 H         -0.6915376012       -0.8644906552        1.9443837289
 H          1.0344205312        0.7489854990        2.2369977183
 H          0.6787754285       -1.2553663105       -1.5171397571
 H          3.2114958564        1.6636818808        1.5388350564
 H          2.8500737361       -0.3509429748       -2.2084797017
 H          4.1275215464        1.1119372846       -0.6860303519
 H         -1.1221881543       -2.1521688651       -0.5236869981
 H         -2.5977113724        0.8546696399       -2.5608425066
 H         -3.9641062923        0.3217045223       -1.5368172805
 H         -2.9731228610        1.7232491396       -1.0365680438
  22
        -36.56674216
 O         -0.9282951681       -2.1206655599        0.3477864275
 O         -1.9916725003       -0.1176525129       -0.9112574964
 O         -2.0053513480        1.1276679909        0.9556220592
 C         -0.6332245841       -0.8507776917        0.8667325754
 C          0.7164976300       -0.3027020975        0.4395915038
 C          1.4611414353        0.4913374764        1.3004115534
 C          1.1880156636       -0.5680479555       -0.8393566038
 C         -1.6380310468        0.1589830792        0.3226136762
 C          2.6776862847        1.0053122527        0.8858296223
 C          2.4072595693       -0.0573762796       -1.2478350807
 C          3.1531172232        0.7295688972       -0.3858399057
 C         -2.8971673687        0.7613146036       -1.5895973535
 H         -0.7168765115       -0.8328268110        1.9633477412
 H          1.0836135754        0.7088821128        2.2884352882
 H          0.5887291681       -1.1741245871       -1.5023856372
 H          3.2546658403        1.6213554431        1.5581613188
 H          2.7714828535       -0.2696176854       -2.2410824945
 H          4.1023882141        1.1311192027       -0.7052210906
 H         -0.2513942447       -2.7480997169        0.6417331224
 H         -3.7518858952        0.1665654869       -1.9050246830
 H         -3.2086633429        1.5627767672       -0.9193271276
 H         -2.3760549465        1.1667843205       -2.4548130946
  22
        -36.56605783
 O         -0.7551248845       -2.2360931432        0.0158890409
 O         -2.0811429921        0.9306015235        0.7361685997
 O         -2.2296194197       -0.2534370189       -1.1664209822
 C         -0.6343093399       -0.9201852216        0.5040976991
 C          0.7424446380       -0.3351997463        0.2105979258
 C          0.9281955272        0.9151087475       -0.3605565243
 C          1.8509990328       -1.1133141486        0.5228493481
 C         -1.7398126626       -0.0494307824       -0.0751976835
 C          2.2087138364        1.3840054860       -0.6058823987
 C          3.1279172071       -0.6455387162        0.2731511287
 C          3.3093434114        0.6072705078       -0.2894576628
 C         -3.0994408420        1.8511736791        0.3173058617
 H         -0.7699848106       -0.9796786759        1.5906084369
 H          0.0806489633        1.5310919009       -0.6207861316
 H          1.6958122382       -2.0912970409        0.9524256226
 H          2.3425640854        2.3584341679       -1.0499302821
 H          3.9808557386       -1.2587296576        0.5196337833
 H          4.3048158580        0.9755786680       -0.4834203633
 H         -0.9615488456       -2.1985567751       -0.9313864193
 H         -4.0400156857        1.5653074441        0.7861238798
 H         -2.7866059698        2.8336518220        0.6605601903
 H         -3.2027148551        1.8247819424       -0.7678047733
  22
        -36.56605006
 O         -0.8559798154       -2.1101301696        0.3293537480
 O         -2.1857878011       -0.1621066524       -0.8001975490
 O         -1.7727936967        1.3018262508        0.8525598638
 C         -0.6352597989       -0.8293813316        0.8486097793
 C          0.7295929922       -0.3209949810        0.4227650727
 C          1.4180121603        0.5822469316        1.2209187236
 C          1.2685601968       -0.7213034522       -0.7915481001
 C         -1.6037117727        0.2266442672        0.3153557707
 C          2.6445699061        1.0725478547        0.8088752526
 C          2.5000222824       -0.2355557437       -1.1952920795
 C          3.1884380200        0.6627711062       -0.3976387671
 C         -3.0680754833        0.7403847447       -1.4780650270
 H         -0.7012780903       -0.8157199536        1.9470401858
 H          0.9876720566        0.9048258750        2.1572321211
 H          0.7210111271       -1.4219995290       -1.4021750458
 H          3.1764507450        1.7743414294        1.4327026206
 H          2.9182907711       -0.5557789237       -2.1370811754
 H          4.1463952556        1.0449440985       -0.7151312335
 H         -1.7543779035       -2.4055552992        0.5307343320
 H         -3.9977108683        0.2054076808       -1.6582965144
 H         -3.2389144452        1.6233773082       -0.8617628499
 H         -2.6013757298        1.0200269325       -2.4208438135
  22
        -36.56598098
 O         -0.8017156621       -2.1877212750        0.8281069498
 O         -2.0136684451        1.0358998170        0.3007564000
 O         -1.9998713396       -0.6721061223       -1.1463073293
 C         -0.6639106551       -0.7919006365        0.8798360143
 C          0.6892834565       -0.2794737815        0.4213326476
 C          1.2475669454        0.8518386662        1.0007955040
 C          1.3493455513       -0.9232193125       -0.6167008425
 C         -1.6458722444       -0.1706868369       -0.1057696491
 C          2.4687531208        1.3245021965        0.5530593579
 C          2.5721728576       -0.4495698982       -1.0587342696
 C          3.1332564601        0.6735514474       -0.4737853778
 C         -2.8599160942        1.7915752174       -0.5750998120
 H         -0.8973476067       -0.4016837355        1.8805506204
 H          0.7234131136        1.3593253133        1.7965718434
 H          0.8901945787       -1.7884346090       -1.0717209439
 H          2.9021491173        2.2021620279        1.0070692470
 H          3.0823256576       -0.9552948713       -1.8639512957
 H          4.0855508640        1.0438739942       -0.8206948569
 H         -0.1263770301       -2.5921958655        1.3931650456
 H         -3.0361755565        2.7333118239       -0.0656083974
 H         -2.3585419649        1.9471664799       -1.5305955098
 H         -3.7929739422        1.2538821504       -0.7450099192
  22
        -36.56517306
 O         -0.8626424180       -1.6961280422        1.1695171848
 O         -2.2087607015       -0.5134786175       -0.7504954084
 O         -2.0297137759        1.5031071943        0.2177339851
 C         -0.6407683804       -0.3161525115        0.9969454698
 C          0.7543409451       -0.0293012747        0.4596585295
 C          1.8411792806       -0.4134503608        1.2369755849
 C          0.9771946824        0.5553037075       -0.7787671816
 C         -1.7055413786        0.3381621410        0.1240284808
 C          3.1319569683       -0.2115705608        0.7842887531
 C          2.2714112534        0.7645050666       -1.2271023322
 C          3.3494686020        0.3815104052       -0.4487382080
 C         -3.2304385291       -0.0699904126       -1.6512352900
 H         -0.7301490788        0.1250904126        1.9972277555
 H          1.6617110428       -0.8794587063        2.1939360114
 H          0.1457719864        0.8625768830       -1.3958185067
 H          3.9678713548       -0.5137197348        1.3959403792
 H          2.4335519354        1.2259665835       -2.1890371732
 H          4.3559483317        0.5444709473       -0.8017502155
 H         -0.8576155873       -2.1361607946        0.3064088134
 H         -2.9208185006       -0.3597167737       -2.6528324220
 H         -4.1583928932       -0.5706176598       -1.3805230669
 H         -3.3472966926        1.0114051060       -1.5759549878
