21
 energy: -42.972573562902 gnorm: 0.000039507904 xtb: 6.4.1 (1a3296197974bf90c4de5929bcb902c290d06ae5)
C1       -0.00139079466617    0.63876397211899    0.15702868180924
C2        0.83414312472715   -0.45258611147098    0.22857076873149
C3        2.22333631394902   -0.31298617466459    0.14433355824422
C4        2.81302390568035    0.92227164577754   -0.01366395442947
C5        1.97807664301731    2.03181794757791   -0.08710249292113
C6        0.56983499762708    1.90104849765644   -0.00285176337428
N1        2.26712823746840    3.35471719338551   -0.23907203333452
C7        1.09195791561185    4.07484918203615   -0.25516414536956
C8        0.03657000579974    3.22522166690821   -0.11388184489264
H1       -1.07314274769018    0.53818305839154    0.22123421540419
H2        0.41625901617525   -1.44060725710597    0.35228045141579
H3        2.84436162922098   -1.19450302769882    0.20478652859023
H4        3.88596255159416    1.02805726021761   -0.07853625896189
H5        3.18761152024807    3.74906358945054   -0.32642805089873
H6        1.08171273704852    5.14294944424526   -0.36596558653734
O1       -1.29812417925640    3.49866622696253   -0.07567475594996
S1       -1.78248212550474    5.01898530212897   -0.19905789632113
O1       -3.20905476299819    4.98153317403419   -0.12111817184357
O2       -1.27441493483372    5.56908309990848   -1.46038157525251
O3       -1.15260262064092    5.79700767906283    0.87309146667310
K1       -1.03407832457756    7.60643994207839   -0.49118180578115
