  22
        -36.56908773
 O         -0.7712587266       -2.2627610910       -0.6218827334
 O         -1.8597006165        1.0978547652       -0.2956431270
 O         -2.2623967748       -0.7182992725        0.9652836946
 C         -0.6512122838       -0.8780528109       -0.7976132169
 C          0.7033281233       -0.3248867561       -0.3762988741
 C          1.1086391101        0.9226206062       -0.8340961122
 C          1.5253741078       -1.0435435683        0.4780397944
 C         -1.6895126227       -0.1564039331        0.0532780714
 C          2.3264738799        1.4441337927       -0.4366296408
 C          2.7465615333       -0.5206195041        0.8693656411
 C          3.1474888598        0.7241401132        0.4166242302
 C         -2.7614014422        1.9066756584        0.4743953427
 H         -0.8264000904       -0.6449097485       -1.8545389940
 H          0.4660542750        1.4821471164       -1.4968169425
 H          1.2137140287       -2.0185643711        0.8189723701
 H          2.6365996628        2.4132289407       -0.7960239113
 H          3.3821861048       -1.0887312629        1.5311024721
 H          4.0978827982        1.1318401758        0.7248467763
 H         -1.3034524568       -2.4193204387        0.1779828959
 H         -2.1946557070        2.4322587377        1.2421298332
 H         -3.2057015060        2.6109646170       -0.2230418176
 H         -3.5212349924        1.2787643483        0.9397813657
  22
        -36.56718522
 O         -0.9410974341       -2.1560610794       -0.0130489778
 O         -2.1292237693        0.0473083921        0.8188157972
 O         -1.8767990397        1.0500604177       -1.1741536141
 C         -0.6281763994       -0.9659637084       -0.6794151984
 C          0.7375118251       -0.3863617229       -0.3244974279
 C          1.2042785641        0.7298101078       -1.0086374755
 C          1.5148128509       -0.9530321318        0.6741157401
 C         -1.6267388771        0.1535604795       -0.3981604863
 C          2.4341726252        1.2756287290       -0.6887759931
 C          2.7484941423       -0.4070840760        0.9876936917
 C          3.2081482142        0.7092816754        0.3117714777
 C         -3.0400031177        1.0477726502        1.2906924205
 H         -0.6556384312       -1.1884001113       -1.7518293884
 H          0.5943775625        1.1714584328       -1.7832032613
 H          1.1667334783       -1.8357845254        1.1871557827
 H          2.7888416619        2.1433917397       -1.2234586360
 H          3.3493066712       -0.8579260480        1.7624237012
 H          4.1678978948        1.1360945731        0.5588761813
 H         -1.1944997881       -1.9530780632        0.9004899867
 H         -3.9596493557        0.5422340896        1.5775336209
 H         -2.5824833472        1.5279754182        2.1535093251
 H         -3.2295245162        1.7764388332        0.5025328914
  22
        -36.56708844
 O         -0.8855011129       -2.0897732950       -0.6361623867
 O         -2.0806188098       -0.2534119643        0.8892902468
 O         -1.9656517409        1.2788187645       -0.7395303231
 C         -0.6392739728       -0.7384899468       -0.9193087064
 C          0.7223957494       -0.2454710279       -0.4568110135
 C          1.6066994629        0.3294509603       -1.3589018082
 C          1.0846987457       -0.3529951426        0.8807024384
 C         -1.6480108136        0.2063542904       -0.2722793626
 C          2.8427859262        0.7818577112       -0.9299340711
 C          2.3224090631        0.0963081936        1.3062902772
 C          3.2037085556        0.6642835449        0.4017932247
 C         -2.9920918991        0.5672159639        1.6282314852
 H         -0.7223854366       -0.6332105068       -2.0048979737
 H          1.3257757068        0.4218006575       -2.3970068528
 H          0.3962571543       -0.7805374422        1.5949533713
 H          3.5244826361        1.2256748014       -1.6388958277
 H          2.5955747997        0.0067532617        2.3463416865
 H          4.1676590993        1.0170030032        0.7342737177
 H         -0.8648209319       -2.2337743241        0.3213976025
 H         -2.5424958023        1.5424053121        1.8165751774
 H         -3.9122765103        0.7030013344        1.0601160778
 H         -3.1799929426        0.0332522671        2.5541659339
  22
        -36.56706950
 O         -1.0120578405       -1.4770430648        1.5423808916
 O         -2.1230398172        0.6655781097        0.4120003218
 O         -1.8134289663       -0.1749933924       -1.6476420484
 C         -0.6456978564       -1.1608362275        0.2269241200
 C          0.7221727522       -0.5101818761        0.0970854511
 C          1.0254251414        0.6305356373        0.8305958200
 C          1.6688529803       -1.0333738124       -0.7727118366
 C         -1.6071969387       -0.1885334958       -0.4528207005
 C          2.2668654144        1.2293918821        0.7073729900
 C          2.9079709357       -0.4291362996       -0.8986664054
 C          3.2102735133        0.7008215233       -0.1574248515
 C         -3.0098164629        1.6876960137       -0.0596059685
 H         -0.6629766136       -2.1017575490       -0.3304376079
 H          0.2890971318        1.0586243413        1.4948277016
 H          1.4331395326       -1.9135727033       -1.3514491151
 H          2.4944190300        2.1128491391        1.2836044732
 H          3.6378501829       -0.8437626759       -1.5766508759
 H          4.1769100868        1.1699625284       -0.2560185876
 H         -1.0718622954       -0.6675472085        2.0708407606
 H         -3.1749215794        1.5680155987       -1.1303280404
 H         -3.9439804941        1.5860577642        0.4886550101
 H         -2.5473190244        2.6505883766        0.1489502757
  22
        -36.56684736
 O         -0.9312361142       -2.1718351438       -0.3784340241
 O         -2.0675945586       -0.1146910557        0.8667832805
 O         -1.8852475282        1.1893058599       -0.9502921063
 C         -0.6369691736       -0.8830065639       -0.8368675209
 C          0.7198463215       -0.3418503673       -0.4069680432
 C          1.3988636283        0.5366757897       -1.2417537574
 C          1.2635640525       -0.6713076549        0.8268711592
 C         -1.6146026304        0.1781010452       -0.3401993442
 C          2.6146196208        1.0688645565       -0.8510803611
 C          2.4843549025       -0.1432246445        1.2115936242
 C          3.1612379171        0.7276283673        0.3754326932
 C         -2.9350440702        0.8214795745        1.5169153486
 H         -0.6873806169       -0.9186201395       -1.9291454952
 H          0.9667485401        0.8056190939       -2.1940343532
 H          0.7426745168       -1.3474568911        1.4867282456
 H          3.1359701958        1.7490514640       -1.5067992688
 H          2.9030586515       -0.4102381032        2.1696060756
 H          4.1107051416        1.1413218779        0.6780797728
 H         -1.1490665746       -2.1394831108        0.5649137477
 H         -3.5147427649        1.3690694397        0.7737617854
 H         -3.5792337257        0.2356104949        2.1660891807
 H         -2.3325835763        1.5196093640        2.0974671096
  22
        -36.56674255
 O         -1.0388721513       -1.3587113832        1.5998049752
 O         -2.0430903765        0.7006690941        0.3839823679
 O         -1.8714456420       -0.3147474046       -1.6099722725
 C         -0.6363598981       -1.1839494867        0.2671117310
 C          0.7192405859       -0.5191665523        0.1083883959
 C          1.1068629301        0.4663475656        1.0066252765
 C          1.5528653389       -0.8590580436       -0.9478341133
 C         -1.6040068214       -0.2326150037       -0.4285609746
 C          2.3308452555        1.0945114526        0.8598937880
 C          2.7739085909       -0.2238846353       -1.0947165199
 C          3.1653450277        0.7500911195       -0.1906113454
 C         -2.9269332620        1.7069838183       -0.1247805215
 H         -0.6578270156       -2.1324635309       -0.2894285022
 H          0.4392928277        0.7308415823        1.8131215224
 H          1.2405974880       -1.6141213071       -1.6538320548
 H          2.6297024174        1.8566467733        1.5628029366
 H          3.4200472555       -0.4912999797       -1.9165601134
 H          4.1184062253        1.2423760768       -0.3076349411
 H         -0.3885346584       -1.9120606351        2.0571392698
 H         -3.8681607888        1.6225577681        0.4150634854
 H         -2.4639026659        2.6725642102        0.0677538750
 H         -3.0815406658        1.5589770486       -1.1938229490
  22
        -36.56605061
 O         -0.9403032817       -1.3388680256        1.6141227657
 O         -2.2295221259        0.5898008008        0.4110587006
 O         -1.6717155450       -0.0949818315       -1.6538177414
 C         -0.6414721415       -1.1495758446        0.2600849931
 C          0.7304994479       -0.5186259801        0.1106081230
 C          1.2130379960        0.3303950178        1.0962415278
 C          1.4832657480       -0.7496606734       -1.0325831754
 C         -1.5787518086       -0.1696366246       -0.4460108174
 C          2.4521385566        0.9288154155        0.9475999681
 C          2.7172526936       -0.1416563566       -1.1813357792
 C          3.2046629707        0.6956695357       -0.1910068649
 C         -3.0961643308        1.6161897866       -0.0867296641
 H         -0.6681026881       -2.0960179714       -0.3010615229
 H          0.6159871762        0.5023508696        1.9780490037
 H          1.0969445003       -1.3973377214       -1.8053708858
 H          2.8262092889        1.5824410297        1.7204615658
 H          3.2991883533       -0.3243964336       -2.0715776061
 H          4.1685953615        1.1663549050       -0.3086181889
 H         -1.8461323444       -1.6609304897        1.7177784331
 H         -3.2546041660        1.4798812641       -1.1568070866
 H         -4.0317291536        1.5337228741        0.4611403145
 H         -2.6262476117        2.5793906457        0.1050653402
  22
        -36.56601730
 O         -0.9373040425       -1.3485775227        1.6077262832
 O         -2.2273345139        0.5938692118        0.4193022161
 O         -1.6828519064       -0.0798241781       -1.6480327064
 C         -0.6424783062       -1.1514119462        0.2534953107
 C          0.7296372434       -0.5203959625        0.1065615070
 C          1.1832523781        0.3729474110        1.0668007706
 C          1.5121222408       -0.7957241076       -1.0061710479
 C         -1.5797665644       -0.1656509189       -0.4421351292
 C          2.4229354449        0.9713413641        0.9242888842
 C          2.7472557300       -0.1882863788       -1.1490748863
 C          3.2055826550        0.6932115852       -0.1836550825
 C         -3.0880633526        1.6138546000       -0.0987569148
 H         -0.6713721358       -2.0946903459       -0.3129515053
 H          0.5632418305        0.5791930646        1.9252730532
 H          1.1496147004       -1.4784899219       -1.7599942031
 H          2.7742461233        1.6595558639        1.6775595115
 H          3.3528748120       -0.4061181811       -2.0152880232
 H          4.1704976685        1.1630682350       -0.2963904024
 H         -1.8503394102       -1.6488538946        1.7140374788
 H         -3.7318547703        1.9019183172        0.7264898295
 H         -2.4886617617        2.4587635091       -0.4376057798
 H         -3.6652963338        1.2233898414       -0.9375017409
  22
        -36.56598101
 O         -0.8015799951       -2.1860337360       -0.8283279166
 O         -2.0179510678        1.0349368952       -0.3029985769
 O         -1.9971497517       -0.6693651300        1.1481375491
 C         -0.6633257698       -0.7901875223       -0.8793128674
 C          0.6900526938       -0.2786347799       -0.4202640514
 C          1.2477999091        0.8542465728       -0.9971674489
 C          1.3513027176       -0.9254623866        0.6150880361
 C         -1.6459378363       -0.1694923496        0.1059835773
 C          2.4697949437        1.3252100861       -0.5498267859
 C          2.5749222755       -0.4535079081        1.0567193282
 C          3.1356134358        0.6710253864        0.4741058138
 C         -2.8665512243        1.7896023949        0.5714491889
 H         -0.8962742820       -0.3993853244       -1.8799045727
 H          0.7227220496        1.3641529815       -1.7908029809
 H          0.8925275784       -1.7918658829        1.0682060319
 H          2.9028094080        2.2040848108       -1.0018706521
 H          3.0860678968       -0.9617408976        1.8597224046
 H          4.0885862018        1.0399770038        0.8206448471
 H         -0.1276601982       -2.5902572686       -1.3952358130
 H         -3.0393712234        2.7329453583        0.0637398140
 H         -3.8011724434        1.2529042324        0.7358976438
 H         -2.3690436970        1.9417780379        1.5295161521
