22
 energy: -36.558769083304 gnorm: 0.000678028617 xtb: 6.4.1 (8725663466f2cbe4bcfeb424dbeae13262b6703d)
O         0.78253398588314    2.24933742934593   -0.63363807953929
O         1.89223193748641   -1.10182031236296   -0.32723796168580
O         2.20614554811939    0.69333395466676    0.99268122999293
C         0.65354047015815    0.87024443620525   -0.81488688031523
C        -0.70131055981834    0.32104521612748   -0.39058053072678
C        -1.11528592361638   -0.92397939980355   -0.84598599379206
C        -1.51338246862225    1.04090436393754    0.47249328977886
C         1.68167826517657    0.15019578537757    0.05235565884802
C        -2.33228391314749   -1.44080461545521   -0.44061165504968
C        -2.73309934517180    0.52258006611659    0.87242350023585
C        -3.14331940315675   -0.71909106425263    0.42004077904037
C         2.77295456589505   -1.88446946122700    0.47443952088403
H         0.83025528346564    0.63756836123561   -1.87113152996564
H        -0.48035449589534   -1.48593842395420   -1.51497609944713
H        -1.19527059167307    2.01374349496805    0.81487563439635
H        -2.65020706116751   -2.40877850718157   -0.79921494495587
H        -3.36228498510475    1.09110179094446    1.54112293476351
H        -4.09379923502191   -1.12397333703307    0.73462535858216
H         1.23601219755261    2.38488673763530    0.21413161077467
H         2.20708142773089   -2.36775006719931    1.27281303917239
H         3.21036923485167   -2.63255149288247   -0.18235671020832
H         3.54654568007607   -1.25093306100867    0.91126093811663
