22
 energy: -36.569090289509 gnorm: 0.000115768015 xtb: 6.4.1 (8725663466f2cbe4bcfeb424dbeae13262b6703d)
O        -0.77127274514625   -2.26275813804305   -0.62187609193131
O        -1.85969590010765    1.09786398656374   -0.29563855153601
O        -2.26239716627247   -0.71828574188702    0.96529284551592
C        -0.65121966545817   -0.87805079323018   -0.79760941124297
C         0.70332510865067   -0.32489109547105   -0.37630076214107
C         1.10864102935032    0.92261334560804   -0.83410159235092
C         1.52537031247285   -1.04355072079616    0.47803629116337
C        -1.68951325561863   -0.15639499384341    0.05328424188756
C         2.32647991718303    1.44412084923475   -0.43664028221146
C         2.74656184195795   -0.52063236774124    0.86935696243746
C         3.14749410561875    0.72412436011468    0.41661197952515
C        -2.76138980287007    1.90669094500250    0.47440165402901
H        -0.82640994069851   -0.64490865821668   -1.85453498372552
H         0.46605681059543    1.48214206371191   -1.49682115615964
H         1.21370631827029   -2.01856929669958    0.81897165649201
H         2.63660951971537    2.41321374615042   -0.79603732664203
H         3.38218574872596   -1.08874629971850    1.53109256622617
H         4.09789125461246    1.13181998440164    0.72483049655127
H        -1.30346450301251   -2.41931330316655    0.17799166831678
H        -2.19463863583198    2.43227239675619    1.24213324889182
H        -3.20568861353852    2.61098101269673   -0.22303518458200
H        -3.52122501627920    1.27878442563456    0.93979142525689
